Version 4
SHEET 1 880 680
WIRE 592 -208 560 -208
WIRE 592 -192 592 -208
WIRE 32 -112 -80 -112
WIRE -176 -96 -224 -96
WIRE -80 -96 -80 -112
WIRE -80 -96 -112 -96
WIRE 144 -96 96 -96
WIRE 176 -96 144 -96
WIRE 288 -96 256 -96
WIRE 384 -96 288 -96
WIRE 32 -80 16 -80
WIRE 480 -80 448 -80
WIRE 512 -80 480 -80
WIRE 592 -80 592 -128
WIRE 640 -80 592 -80
WIRE 384 -64 368 -64
WIRE -80 -48 -80 -96
WIRE 288 -48 288 -96
WIRE 592 -32 592 -80
WIRE 368 0 368 -64
WIRE 480 0 480 -80
WIRE 480 0 368 0
WIRE 16 16 16 -80
WIRE 32 16 16 16
WIRE 144 16 144 -96
WIRE 144 16 112 16
WIRE -80 48 -80 32
WIRE 16 48 16 16
WIRE 288 48 288 16
WIRE 592 48 592 32
WIRE 16 144 16 128
FLAG -80 48 0
FLAG 288 48 0
FLAG -224 -96 Vin
FLAG 64 -128 0
FLAG 64 -64 Vcc
FLAG 16 144 0
FLAG 416 -112 0
FLAG 416 -48 Vcc
FLAG 592 48 0
FLAG 560 -208 2.9V
FLAG 640 -80 Vout
SYMBOL cap -112 -112 R90
WINDOW 0 0 32 VBottom 2
WINDOW 3 32 32 VTop 2
SYMATTR InstName C1
SYMATTR Value 47.3µ
SYMBOL res -96 -64 R0
SYMATTR InstName R1
SYMATTR Value 680k
SYMBOL res 272 -112 R90
WINDOW 0 0 56 VBottom 2
WINDOW 3 32 56 VTop 2
SYMATTR InstName R2
SYMATTR Value 842k
SYMBOL cap 272 -48 R0
SYMATTR InstName C2
SYMATTR Value 47.3µ
SYMBOL OpAmps\\UniversalOpamp2 64 -96 M180
SYMATTR InstName U1
SYMBOL res 128 0 R90
WINDOW 0 0 56 VBottom 2
WINDOW 3 32 56 VTop 2
SYMATTR InstName R3
SYMATTR Value 5.16k
SYMBOL res 0 32 R0
SYMATTR InstName R4
SYMATTR Value 1k
SYMBOL OpAmps\\UniversalOpamp2 416 -80 M180
SYMATTR InstName U2
SYMBOL res 608 -96 R90
WINDOW 0 0 56 VBottom 2
WINDOW 3 32 56 VTop 2
SYMATTR InstName R5
SYMATTR Value 100
SYMBOL diode 576 -192 R0
SYMATTR InstName D1
SYMBOL diode 576 -32 R0
SYMATTR InstName D2
