Version 4
SHEET 1 880 680
WIRE 64 128 -16 128
WIRE 64 160 -176 160
WIRE -32 208 -64 208
WIRE 64 208 -32 208
WIRE -176 224 -272 224
WIRE -128 224 -176 224
WIRE 64 240 -16 240
FLAG -16 320 0
FLAG -32 208 OUT
FLAG -64 240 0
FLAG -256 160 0
FLAG -176 224 Vout
SYMBOL OPB745 96 160 R0
SYMATTR InstName X1
SYMBOL res -32 224 R0
SYMATTR InstName R2
SYMBOL res -32 32 R0
SYMATTR InstName R1
SYMBOL voltage -16 -48 R0
SYMATTR InstName V1
SYMBOL res -160 144 R90
WINDOW 0 0 56 VBottom 2
WINDOW 3 32 56 VTop 2
SYMATTR InstName R3
SYMBOL OpAmps\\UniversalOpamp2 -96 224 R180
SYMATTR InstName U1
