Version 4
SHEET 1 880 680
WIRE 208 48 144 48
WIRE 288 48 272 48
WIRE 288 128 288 48
WIRE 288 128 256 128
WIRE 144 144 144 48
WIRE 144 144 96 144
WIRE 192 144 144 144
WIRE 288 160 288 128
WIRE 352 160 288 160
WIRE 464 160 432 160
WIRE 16 224 16 144
WIRE 16 224 0 224
WIRE 32 224 16 224
WIRE 96 224 96 144
WIRE 272 256 240 256
WIRE 352 256 352 160
WIRE 0 272 0 224
WIRE 96 272 96 224
WIRE 96 272 80 272
WIRE 160 272 96 272
WIRE 240 288 240 256
WIRE 288 288 240 288
WIRE 0 320 0 272
WIRE 0 320 -32 320
WIRE 96 320 0 320
WIRE 224 320 176 320
WIRE 288 320 288 288
WIRE 304 320 288 320
WIRE 352 320 352 256
WIRE 352 320 304 320
WIRE 368 320 352 320
WIRE 160 336 160 272
WIRE 176 336 176 320
WIRE 176 336 160 336
WIRE 464 336 464 160
WIRE 464 336 432 336
WIRE 544 336 464 336
WIRE 96 352 80 352
WIRE 368 352 336 352
WIRE 80 432 80 352
WIRE 208 432 80 432
WIRE 336 432 336 352
WIRE 336 432 208 432
FLAG 256 160 0
FLAG 208 432 0
FLAG -192 320 0
SYMBOL OpAmps\\UniversalOpamp2 224 144 R180
SYMATTR InstName U1
SYMBOL OpAmps\\UniversalOpamp2 400 336 M180
SYMATTR InstName U2
SYMBOL OpAmps\\UniversalOpamp2 128 336 M180
SYMATTR InstName U3
SYMBOL res 448 144 R90
WINDOW 0 0 56 VBottom 2
WINDOW 3 32 56 VTop 2
SYMATTR InstName R4_2
SYMATTR Value 70
SYMBOL res 368 240 R90
WINDOW 0 0 56 VBottom 2
WINDOW 3 32 56 VTop 2
SYMATTR InstName R4_1
SYMATTR Value 70
SYMBOL cap 96 208 R90
WINDOW 0 0 32 VBottom 2
WINDOW 3 32 32 VTop 2
SYMATTR InstName C1
SYMATTR Value .02µf
SYMBOL res 96 256 R90
WINDOW 0 0 56 VBottom 2
WINDOW 3 32 56 VTop 2
SYMATTR InstName R2
SYMATTR Value 1750
SYMBOL res -16 304 R90
WINDOW 0 0 56 VBottom 2
WINDOW 3 32 56 VTop 2
SYMATTR InstName R1
SYMATTR Value 175
SYMBOL res 320 304 R90
WINDOW 0 0 56 VBottom 2
WINDOW 3 32 56 VTop 2
SYMATTR InstName R4
SYMATTR Value 70
SYMBOL voltage -96 320 R90
WINDOW 0 -32 56 VBottom 2
WINDOW 3 32 56 VTop 2
SYMATTR InstName V1
SYMATTR Value ac 1
SYMBOL res 112 128 R90
WINDOW 0 0 56 VBottom 2
WINDOW 3 32 56 VTop 2
SYMATTR InstName R3
SYMATTR Value 70
SYMBOL cap 272 32 R90
WINDOW 0 0 32 VBottom 2
WINDOW 3 32 32 VTop 2
SYMATTR InstName C2
SYMATTR Value .02µf
TEXT -212 456 Left 2 !.ac dec 1000 100k 1meg
