Version 4
SHEET 1 880 680
WIRE 288 -80 64 -80
WIRE 448 -80 352 -80
WIRE 64 -16 64 -80
WIRE 64 -16 0 -16
WIRE 112 -16 64 -16
WIRE 240 -16 192 -16
WIRE 240 16 240 -16
WIRE 304 16 240 16
WIRE 448 32 448 -80
WIRE 448 32 368 32
WIRE 496 32 448 32
WIRE 240 64 240 16
WIRE 304 96 304 48
WIRE 320 96 304 96
WIRE 448 96 448 32
WIRE 448 96 400 96
WIRE 304 112 304 96
WIRE 240 192 240 128
WIRE 240 192 -16 192
WIRE 304 192 240 192
WIRE 368 192 304 192
WIRE 464 192 368 192
FLAG 368 192 0
FLAG -80 64 0
FLAG 496 32 Vout
SYMBOL res 16 -32 R90
WINDOW 0 0 56 VBottom 2
WINDOW 3 32 56 VTop 2
SYMATTR InstName R1
SYMATTR Value 10000
SYMBOL res 208 -32 R90
WINDOW 0 0 56 VBottom 2
WINDOW 3 32 56 VTop 2
SYMATTR InstName R2
SYMATTR Value 55000
SYMBOL cap 352 -96 R90
WINDOW 0 0 32 VBottom 2
WINDOW 3 32 32 VTop 2
SYMATTR InstName C1
SYMATTR Value 470pf
SYMBOL cap 224 64 R0
SYMATTR InstName C2
SYMATTR Value 470pf
SYMBOL OpAmps\\UniversalOpamp2 336 32 R0
SYMATTR InstName U1
SYMBOL res 320 208 R180
WINDOW 0 36 76 Left 2
WINDOW 3 36 40 Left 2
SYMATTR InstName R3
SYMATTR Value 70000
SYMBOL res 416 80 R90
WINDOW 0 0 56 VBottom 2
WINDOW 3 32 56 VTop 2
SYMATTR InstName R4
SYMATTR Value 600000
SYMBOL voltage -80 -32 R0
SYMATTR InstName V1
SYMATTR Value ac 1
TEXT -114 216 Left 2 !.ac dec 10 1000 1meg
