Version 4
SHEET 1 880 680
WIRE 288 -80 64 -80
WIRE 448 -80 352 -80
WIRE 64 -16 64 -80
WIRE 64 -16 0 -16
WIRE 112 -16 64 -16
WIRE 240 -16 192 -16
WIRE 608 0 336 0
WIRE 304 16 288 16
WIRE 448 32 448 -80
WIRE 448 32 368 32
WIRE 496 32 448 32
WIRE 240 48 240 -16
WIRE 304 48 240 48
WIRE 240 64 240 48
WIRE 288 96 288 16
WIRE 400 96 288 96
WIRE 400 112 400 96
WIRE 448 112 400 112
WIRE 336 160 336 64
WIRE 608 160 336 160
WIRE 240 192 240 128
WIRE 240 192 -16 192
WIRE 368 192 240 192
WIRE 448 192 368 192
WIRE 464 192 448 192
FLAG 368 192 0
FLAG -80 64 0
FLAG 496 32 Vout
FLAG 608 80 0
FLAG 608 240 0
SYMBOL res 16 -32 R90
WINDOW 0 0 56 VBottom 2
WINDOW 3 32 56 VTop 2
SYMATTR InstName R1
SYMATTR Value 1k
SYMBOL res 208 -32 R90
WINDOW 0 0 56 VBottom 2
WINDOW 3 32 56 VTop 2
SYMATTR InstName R2
SYMATTR Value 1k
SYMBOL cap 352 -96 R90
WINDOW 0 0 32 VBottom 2
WINDOW 3 32 32 VTop 2
SYMATTR InstName C1
SYMATTR Value 1.59E-7
SYMBOL cap 224 64 R0
SYMATTR InstName C2
SYMATTR Value 1.59E-7
SYMBOL voltage -80 -32 R0
SYMATTR InstName V1
SYMATTR Value ac 1
SYMBOL voltage 608 -16 R0
SYMATTR InstName V2
SYMATTR Value 100v
SYMBOL voltage 608 256 R180
WINDOW 0 24 96 Left 2
WINDOW 3 24 16 Left 2
WINDOW 123 0 0 Left 0
WINDOW 39 0 0 Left 0
SYMATTR InstName V3
SYMATTR Value 100v
SYMBOL res 432 16 R0
SYMATTR InstName R3
SYMATTR Value 1k
SYMBOL res 432 96 R0
SYMATTR InstName R4
SYMATTR Value 1k
SYMBOL OpAmps\\UniversalOpamp2 336 32 R0
SYMATTR InstName U1
TEXT -112 216 Left 2 !.ac dec 1000 1 1meg
